#======================================================================

# CRYSTAL DATA

#----------------------------------------------------------------------

data_VESTA_phase_1


_pd_phase_name                         'C18 H19 N O3'
_cell_length_a                         10.194(2)
_cell_length_b                         13.554(3)
_cell_length_c                         12.613(5)
_cell_angle_alpha                      90
_cell_angle_beta                       116.48(2)
_cell_angle_gamma                      90
_symmetry_space_group_name_H-M         'P 21/c'
_symmetry_Int_Tables_number            14

loop_
_symmetry_equiv_pos_as_xyz
   'x, y, z'
   '-x, -y, -z'
   '-x, y+1/2, -z+1/2'
   'x, -y+1/2, z+1/2'

loop_
   _atom_site_label
   _atom_site_occupancy
   _atom_site_fract_x
   _atom_site_fract_y
   _atom_site_fract_z
   _atom_site_adp_type
   _atom_site_U_iso_or_equiv
   _atom_site_type_symbol
   C1         1.0     0.6147(4)     0.2041(2)    -0.2269(4)    Uiso  0.056341 C
   C2         1.0     0.4945(4)     0.2577(2)    -0.3034(4)    Uiso  0.061291 C
   H2         1.0     0.460200      0.252200     -0.385000     Uiso  0.074000 H
   C3         1.0     0.4268(4)     0.3189(4)    -0.2573(4)    Uiso  0.065804 C
   C4         1.0     0.4779(4)     0.3278(4)    -0.1369(4)    Uiso  0.075171 C
   H4         1.0     0.431500      0.370200     -0.106400     Uiso  0.090000 H
   C5         1.0     0.5964(4)     0.2746(4)    -0.0625(4)    Uiso  0.066494 C
   H5         1.0     0.629100      0.280900      0.018800     Uiso  0.080000 H
   C6         1.0     0.6699(4)     0.2113(2)    -0.1040(2)    Uiso  0.053183 C
   C7         1.0     0.7976(4)     0.1530(2)    -0.0272(4)    Uiso  0.057257 C
   C8         1.0     0.8511(4)     0.1557(2)     0.1005(4)    Uiso  0.060003 C
   H8         1.0     0.801900      0.194600      0.132100     Uiso  0.072000 H
   C9         1.0     0.9673(4)     0.1048(2)     0.1738(4)    Uiso  0.060696 C
   H9         1.0     1.013300      0.066600      0.139000     Uiso  0.073000 H
   C10        1.0     1.0303(4)     0.1019(2)     0.3010(4)    Uiso  0.055471 C
   C11        1.0     0.9768(4)     0.1559(4)     0.3662(4)    Uiso  0.064359 C
   H11        1.0     0.897200      0.197400      0.326100     Uiso  0.077000 H
   C12        1.0     1.0358(4)     0.1509(2)     0.4870(4)    Uiso  0.067418 C
   H12        1.0     0.995800      0.189000      0.526600     Uiso  0.081000 H
   C13        1.0     1.1551(4)     0.0894(2)     0.5521(4)    Uiso  0.057623 C
   C14        1.0     1.2117(4)     0.0359(4)     0.4868(4)    Uiso  0.066213 C
   H14        1.0     1.292100     -0.005200      0.526100     Uiso  0.079000 H
   C15        1.0     1.1506(4)     0.0431(4)     0.3667(4)    Uiso  0.067351 C
   H15        1.0     1.191900      0.006800      0.326600     Uiso  0.081000 H
   C16        1.0     1.1551(5)     0.1411(4)     0.7386(4)    Uiso  0.093836 C
   H16A       1.0     1.145000      0.208900      0.714400     Uiso  0.140000 H
   H16B       1.0     1.220400      0.136500      0.821600     Uiso  0.140000 H
   H16C       1.0     1.060900      0.115200      0.724100     Uiso  0.140000 H
   C17        1.0     1.3346(5)     0.0185(4)     0.7385(4)    Uiso  0.095652 C
   H17A       1.0     1.305000     -0.048300      0.713900     Uiso  0.144000 H
   H17B       1.0     1.361800      0.024900      0.821500     Uiso  0.144000 H
   H17C       1.0     1.416800      0.035000      0.724100     Uiso  0.144000 H
   C18        1.0     0.2580(5)     0.3765(4)    -0.4488(4)    Uiso  0.085366 C
   H18A       1.0     0.333500      0.401900     -0.467000     Uiso  0.128000 H
   H18B       1.0     0.172600      0.417500     -0.484800     Uiso  0.128000 H
   H18C       1.0     0.233700      0.310500     -0.478800     Uiso  0.128000 H
   N1         1.0     1.2138(4)     0.0847(2)     0.6719(2)    Uiso  0.076172 N
   O1         1.0     0.6799(4)     0.1458(2)    -0.2766(2)    Uiso  0.086318 O
   H1         1.0     0.750200      0.117700     -0.224300     Uiso  0.129000 H
   O2         1.0     0.8613(4)     0.10071(18)  -0.0724(2)    Uiso  0.075139 O
   O3         1.0     0.3085(4)     0.3758(2)    -0.3244(2)    Uiso  0.088580 O

loop_
   _atom_site_aniso_label
   _atom_site_aniso_U_11
   _atom_site_aniso_U_22
   _atom_site_aniso_U_33
   _atom_site_aniso_U_12
   _atom_site_aniso_U_13
   _atom_site_aniso_U_23
   C1	 0.06400  0.06320  0.04620 -0.00350  0.02850 -0.00570
   C2	 0.06600  0.07600  0.03960 -0.00350  0.02150 -0.00110
   H2	 0.00000  0.00000  0.00000  0.00000  0.00000  0.00000
   C3	 0.05500  0.08800  0.04880  0.00470  0.01810  0.00380
   C4	 0.07700  0.10300  0.04880  0.02400  0.03100  0.00740
   H4	 0.00000  0.00000  0.00000  0.00000  0.00000  0.00000
   C5	 0.06300  0.09300  0.04300  0.00260  0.02320 -0.00140
   H5	 0.00000  0.00000  0.00000  0.00000  0.00000  0.00000
   C6	 0.05300  0.06500  0.04130 -0.00800  0.02080 -0.00160
   C7	 0.05900  0.06300  0.04830 -0.00530  0.02260  0.00260
   C8	 0.06500  0.06900  0.04320  0.00090  0.02160  0.00260
   H8	 0.00000  0.00000  0.00000  0.00000  0.00000  0.00000
   C9	 0.05800  0.07100  0.05080 -0.00430  0.02220 -0.00330
   H9	 0.00000  0.00000  0.00000  0.00000  0.00000  0.00000
   C10	 0.05300  0.06260  0.04890 -0.00130  0.02100  0.00310
   C11	 0.06600  0.07300  0.04590  0.01520  0.01760  0.00460
   H11	 0.00000  0.00000  0.00000  0.00000  0.00000  0.00000
   C12	 0.07800  0.06900  0.05070  0.01730  0.02460  0.00310
   H12	 0.00000  0.00000  0.00000  0.00000  0.00000  0.00000
   C13	 0.06400  0.05840  0.04180 -0.00540  0.01580  0.00150
   C14	 0.06000  0.07400  0.05600  0.01320  0.01810  0.00980
   H14	 0.00000  0.00000  0.00000  0.00000  0.00000  0.00000
   C15	 0.06100  0.07700  0.06300  0.01060  0.02670  0.00740
   H15	 0.00000  0.00000  0.00000  0.00000  0.00000  0.00000
   C16	 0.12100  0.09300  0.05500  0.00400  0.02800  0.00000
   H16A	 0.00000  0.00000  0.00000  0.00000  0.00000  0.00000
   H16B	 0.00000  0.00000  0.00000  0.00000  0.00000  0.00000
   H16C	 0.00000  0.00000  0.00000  0.00000  0.00000  0.00000
   C17	 0.08400  0.11100  0.06500  0.01200  0.00900  0.02500
   H17A	 0.00000  0.00000  0.00000  0.00000  0.00000  0.00000
   H17B	 0.00000  0.00000  0.00000  0.00000  0.00000  0.00000
   H17C	 0.00000  0.00000  0.00000  0.00000  0.00000  0.00000
   C18	 0.09100  0.10600  0.04620  0.02200  0.01900  0.00710
   H18A	 0.00000  0.00000  0.00000  0.00000  0.00000  0.00000
   H18B	 0.00000  0.00000  0.00000  0.00000  0.00000  0.00000
   H18C	 0.00000  0.00000  0.00000  0.00000  0.00000  0.00000
   N1	 0.08400  0.08200  0.04810  0.01050  0.01650  0.00490
   O1	 0.10100  0.10400  0.04990  0.03250  0.03000 -0.00200
   H1	 0.00000  0.00000  0.00000  0.00000  0.00000  0.00000
   O2	 0.08380  0.08930  0.05290  0.01880  0.03100  0.00280
   O3	 0.08100  0.12800  0.05040  0.03370  0.02360  0.01420
