#======================================================================

# CRYSTAL DATA

#----------------------------------------------------------------------

data_VESTA_phase_1


_pd_phase_name                         'C18 H19 N O2'
_cell_length_a                         10.750(2)
_cell_length_b                         13.160(3)
_cell_length_c                         22.141(4)
_cell_angle_alpha                      90
_cell_angle_beta                       90
_cell_angle_gamma                      90
_symmetry_space_group_name_H-M         'P b c a'
_symmetry_Int_Tables_number            61

loop_
_symmetry_equiv_pos_as_xyz
   'x, y, z'
   '-x, -y, -z'
   '-x+1/2, -y, z+1/2'
   'x+1/2, y, -z+1/2'
   '-x, y+1/2, -z+1/2'
   'x, -y+1/2, z+1/2'
   'x+1/2, -y+1/2, -z'
   '-x+1/2, y+1/2, z'

loop_
   _atom_site_label
   _atom_site_occupancy
   _atom_site_fract_x
   _atom_site_fract_y
   _atom_site_fract_z
   _atom_site_adp_type
   _atom_site_U_iso_or_equiv
   _atom_site_type_symbol
   O1         1.0     0.15582(16)   1.16054(9)    0.16730(6)   Uiso  0.058967 O
   O2         1.0     0.06881(14)   1.02789(9)    0.09636(6)   Uiso  0.055933 O
   C8         1.0     0.13577(18)   0.96002(12)   0.11913(8)   Uiso  0.043667 C
   C11        1.0     0.09151(18)   0.74044(12)   0.00809(7)   Uiso  0.045600 C
   C1         1.0     0.20617(17)   0.98238(12)   0.17480(7)   Uiso  0.042167 C
   C9         1.0     0.1474(2)     0.86087(13)   0.09080(8)   Uiso  0.046067 C
   C2         1.0     0.21567(18)   1.08312(12)   0.19561(8)   Uiso  0.045600 C
   C13        1.0     0.1831(2)     0.57469(16)  -0.00931(9)   Uiso  0.055367 C
   N1         1.0     0.11967(18)   0.47145(12)  -0.09407(7)   Uiso  0.061967 N
   C14        1.0     0.1100(2)     0.55898(13)  -0.06119(8)   Uiso  0.048967 C
   C10        1.0     0.0821(2)     0.83454(13)   0.04133(8)   Uiso  0.047100 C
   C6         1.0     0.2671(2)     0.90670(13)   0.20811(8)   Uiso  0.050333 C
   C12        1.0     0.1728(2)     0.66206(14)   0.02401(9)   Uiso  0.053400 C
   C4         1.0     0.3469(2)     1.02882(16)   0.27692(9)   Uiso  0.057900 C
   C3         1.0     0.2893(2)     1.10507(14)   0.24558(9)   Uiso  0.054267 C
   C5         1.0     0.3358(2)     0.92742(14)   0.25933(9)   Uiso  0.058500 C
   C16        1.0     0.0195(2)     0.72447(16)  -0.04329(9)   Uiso  0.056633 C
   C15        1.0     0.0281(2)     0.63697(16)  -0.07744(9)   Uiso  0.060533 C
   C17        1.0     0.0392(4)     0.4526(2)    -0.14494(12)  Uiso  0.077067 C
   C18        1.0     0.2034(4)     0.39107(18)  -0.07559(12)  Uiso  0.069200 C
   C7         1.0     0.3985(4)     0.84333(17)   0.29436(13)  Uiso  0.100967 C
   H7A        1.0     0.360000      0.836900      0.333300     Uiso  0.152000 H
   H7B        1.0     0.485100      0.859100      0.299400     Uiso  0.152000 H
   H7C        1.0     0.390300      0.780500      0.272700     Uiso  0.152000 H
   H7         1.0     0.262(2)      0.8363(15)    0.1947(8)    Uiso  0.056000 H
   H10        1.0    -0.040(2)      0.7772(15)   -0.0553(9)    Uiso  0.061000 H
   H9         1.0     0.025(2)      0.8832(16)    0.0259(8)    Uiso  0.058000 H
   H12        1.0     0.241(2)      0.5224(16)    0.0042(10)   Uiso  0.077000 H
   H2         1.0     0.296(2)      1.1786(16)    0.2558(9)    Uiso  0.065000 H
   H3         1.0     0.398(2)      1.0447(14)    0.3115(10)   Uiso  0.063000 H
   H13        1.0     0.230(2)      0.6711(14)    0.0594(9)    Uiso  0.063000 H
   H8         1.0     0.206(2)      0.8147(14)    0.1071(8)    Uiso  0.050000 H
   H14        1.0    -0.044(3)      0.464(2)     -0.1342(13)   Uiso  0.095000 H
   H11        1.0    -0.026(2)      0.6300(18)   -0.1122(10)   Uiso  0.081000 H
   H17        1.0     0.202(3)      0.337(2)     -0.1062(13)   Uiso  0.106000 H
   H19        1.0     0.183(2)      0.3634(18)   -0.0350(13)   Uiso  0.084000 H
   H15        1.0     0.054(3)      0.389(2)     -0.1615(13)   Uiso  0.111000 H
   H18        1.0     0.290(3)      0.415(2)     -0.0706(13)   Uiso  0.098000 H
   H1         1.0     0.103(3)      1.123(2)      0.1360(11)   Uiso  0.090000 H
   H16        1.0     0.053(3)      0.508(2)     -0.1772(16)   Uiso  0.119000 H

loop_
   _atom_site_aniso_label
   _atom_site_aniso_U_11
   _atom_site_aniso_U_22
   _atom_site_aniso_U_33
   _atom_site_aniso_U_12
   _atom_site_aniso_U_13
   _atom_site_aniso_U_23
   O1	 0.07700  0.03460  0.06530  0.00680  0.00080 -0.00040
   O2	 0.07030  0.04290  0.05460  0.00780 -0.00510  0.00440
   C8	 0.04800  0.03740  0.04560 -0.00140  0.00500  0.00630
   C11	 0.04870  0.04190  0.04620 -0.00190 -0.00520  0.00200
   C1	 0.04570  0.03590  0.04490 -0.00370  0.00600  0.00170
   C9	 0.04910  0.04210  0.04700 -0.00080 -0.00010  0.00140
   C2	 0.05210  0.03550  0.04920  0.00070  0.00920 -0.00090
   C13	 0.06300  0.04830  0.05480  0.00880 -0.01730 -0.00470
   N1	 0.06660  0.06030  0.05900  0.01090 -0.01970 -0.01720
   C14	 0.04910  0.04890  0.04890  0.00280 -0.00640 -0.00360
   C10	 0.05060  0.04120  0.04950  0.00040 -0.00100  0.00540
   C6	 0.05630  0.03460  0.06010 -0.00640 -0.00910  0.00200
   C12	 0.05930  0.05000  0.05090  0.00410 -0.01710 -0.00370
   C4	 0.06100  0.05500  0.05770 -0.00580 -0.00820 -0.00820
   C3	 0.06240  0.04150  0.05890 -0.00260  0.00570 -0.01230
   C5	 0.06340  0.04720  0.06490 -0.00840 -0.01670  0.00450
   C16	 0.05950  0.05440  0.05600  0.01190 -0.01720 -0.00160
   C15	 0.06350  0.06360  0.05450  0.01050 -0.02220 -0.00860
   C17	 0.06980  0.09180  0.06960  0.01800 -0.02320 -0.03760
   C18	 0.08800  0.05610  0.06350  0.01670 -0.01400 -0.00980
   C7	 0.13100  0.05790  0.11400 -0.01090 -0.07500  0.01220
   H7A	 0.00000  0.00000  0.00000  0.00000  0.00000  0.00000
   H7B	 0.00000  0.00000  0.00000  0.00000  0.00000  0.00000
   H7C	 0.00000  0.00000  0.00000  0.00000  0.00000  0.00000
   H7	 0.00000  0.00000  0.00000  0.00000  0.00000  0.00000
   H10	 0.00000  0.00000  0.00000  0.00000  0.00000  0.00000
   H9	 0.00000  0.00000  0.00000  0.00000  0.00000  0.00000
   H12	 0.00000  0.00000  0.00000  0.00000  0.00000  0.00000
   H2	 0.00000  0.00000  0.00000  0.00000  0.00000  0.00000
   H3	 0.00000  0.00000  0.00000  0.00000  0.00000  0.00000
   H13	 0.00000  0.00000  0.00000  0.00000  0.00000  0.00000
   H8	 0.00000  0.00000  0.00000  0.00000  0.00000  0.00000
   H14	 0.00000  0.00000  0.00000  0.00000  0.00000  0.00000
   H11	 0.00000  0.00000  0.00000  0.00000  0.00000  0.00000
   H17	 0.00000  0.00000  0.00000  0.00000  0.00000  0.00000
   H19	 0.00000  0.00000  0.00000  0.00000  0.00000  0.00000
   H15	 0.00000  0.00000  0.00000  0.00000  0.00000  0.00000
   H18	 0.00000  0.00000  0.00000  0.00000  0.00000  0.00000
   H1	 0.00000  0.00000  0.00000  0.00000  0.00000  0.00000
   H16	 0.00000  0.00000  0.00000  0.00000  0.00000  0.00000
